           13  
Ar Ar -1.784122956118084 -173.9284209204785
Ar   15.747217053    2.048989427   13.383055766
Ar   15.558549182   -3.264439677    9.610522967
Ar    8.426593716   -3.501606345   14.065338470
Ar   12.105781239    0.823129468    5.913424714
Ar    9.883458422    4.519159237   12.038760331
Ar    7.273985698   -2.367817534   10.666249326
Ar    6.285102326    4.049093530   11.038836608
Ar    6.097188747   -1.264425157    7.265366028
Ar   10.794439605   -2.633202694    5.205157881
Ar    9.738091337   -0.037634820   14.735679873
Ar    8.587831308    1.073027238   11.348428512
Ar   12.010769876   -3.018736180   15.074662349
Ar   15.704350643    1.303343387    6.906747618
Ar    4.977313935    0.597267142   10.350293595
Ar    6.139488938   -0.518356147   13.741933285
Ar   13.417206334    4.286844626    6.583606235
Ar   14.396089434   -2.148282344    6.219156446
Ar    9.540784315   -5.354522960   10.995566183
Ar    9.694700007   -0.767757817    8.297891349
Ar   10.849542255   -1.876925896   11.667971626
Ar    7.447679759    2.933283639   14.430245876
Ar   16.866544878    0.187314742   10.298214688
Ar   12.303076966    6.139404765    9.653683770
Ar   14.570232439    3.152942132    9.982466938
Ar   13.325517742    0.449740058   15.765456738
Ar   13.471310301    5.018029996   13.061633609
Ar    8.718633304    5.656518056    8.645224462
Ar   13.256055547   -0.287848059    9.300695805
Ar    9.832757896    3.804421545    5.575015074
Ar   12.149310510    1.553045674   12.351132690
Ar    8.373140486   -4.233279114    7.587394447
Ar   13.124915127   -4.871405919   12.004661778
Ar   10.994307218    2.662186928    8.981283160
Ar   14.424698133   -1.404221725   12.679862164
Ar    8.518622114    0.335892736    4.883399113
Ar   11.049590792    3.418715824   15.444099471
Ar   11.960421431   -3.734005286    8.610787288
Ar    7.419038936    2.189133214    7.969206953